324
*****
C         -2.01490        6.88520        0.34770
C         -2.86240        6.23220        1.25470
C         -3.23240        4.89730        1.06060
C         -2.75810        4.18090       -0.04580
C         -1.88800        4.81890       -0.93920
C         -1.52060        6.15380       -0.74240
H         -0.83820        6.62550       -1.44700
H         -1.48230        4.27960       -1.79280
H         -3.24670        6.76890        2.12040
H         -3.89000        4.42020        1.78460
C         -3.14580        2.74300       -0.25110
Cl        -1.99970        1.66420        0.56810
H         -3.15770        2.48810       -1.31600
H         -4.14760        2.54640        0.14480
C         -1.66650       10.67380        0.06190
C         -0.70420       10.93810        1.05380
C         -2.12680        9.36250       -0.20840
C         -0.21660        9.87280        1.81610
C         -1.62250        8.28880        0.55720
H         -2.06500       11.50520       -0.51910
C         -0.68310        8.57040        1.56680
H         -0.29410        7.74730        2.16690
C         -3.14740        9.16620       -1.31720
C         -4.56950        9.51950       -0.94400
H         -3.13580        8.14240       -1.70550
H         -2.83490        9.77060       -2.18050
C         -5.37760        8.62310       -0.24190
C         -6.69170        8.96130        0.09180
C         -7.24080       10.20570       -0.26350
C         -6.43120       11.12070       -0.97110
C         -5.11020       10.75700       -1.31030
H         -4.99770        7.64680        0.04400
H         -7.29680        8.23940        0.63850
H         -4.49280       11.46270       -1.86510
C         -8.63160       10.49200        0.11590
C         -9.69550       10.07700       -0.69780
C        -11.02050       10.33710       -0.33400
C        -11.31160       11.02400        0.85210
C         -8.92760       11.16560        1.30930
C        -10.25180       11.42790        1.67500
H         -9.49400        9.53960       -1.62240
H        -11.82420        9.99190       -0.98130
H         -8.12160       11.48600        1.96650
H        -10.44870       11.94430        2.61240
C        -12.73600       11.29180        1.25150
Cl       -13.37900        9.94530        2.21220
H        -13.37290       11.42040        0.37000
H        -12.81150       12.20700        1.84790
C          0.76970       10.09330        2.93390
C          1.49110       11.41820        2.90670
H          1.52140        9.29430        2.88830
H          0.23480       10.00950        3.88820
C         -0.24010       12.36020        1.30940
C          1.02120       12.49880        2.14280
H         -1.04910       12.89900        1.81790
H         -0.06000       12.83850        0.33830
C          2.63370       11.57950        3.70110
C          3.31000       12.79860        3.73390
C          1.71240       13.73290        2.19280
C          2.86360       13.89660        2.98430
H          1.34550       14.57610        1.61030
H          3.00560       10.75240        4.30200
H          4.19980       12.89130        4.35440
C          3.62200       15.15730        3.05500
C          4.62800       15.44410        2.12170
C          5.48360       16.54310        2.29450
C          5.35850       17.38630        3.40930
C          4.31560       17.13860        4.31200
H          4.78890       14.77630        1.27720
H          6.27930       16.70680        1.57050
C          3.46110       16.03820        4.13620
H          4.18320       17.77870        5.18210
H          2.69150       15.84390        4.88120
C         -6.92830       12.48670       -1.40940
C         -6.09040       13.65820       -0.93140
H         -7.95590       12.67500       -1.08170
H         -6.96170       12.47600       -2.50720
C         -5.61030       13.72310        0.38440
C         -4.91360       14.84680        0.83300
C         -5.85220       14.74110       -1.78900
C         -5.16620       15.87140       -1.33510
C         -4.71000       15.94700       -0.01200
H         -5.78960       12.90480        1.07890
H         -4.57530       14.88370        1.86660
H         -6.22520       14.72590       -2.81090
H         -5.02820       16.71580       -2.00730
C         -4.14730       17.19700        0.51780
C         -2.76140       17.43150        0.41800
C         -2.16160       18.58190        0.96170
C         -4.96590       18.15160        1.16870
C         -4.36480       19.31510        1.67990
C         -2.97470       19.53530        1.58490
H         -2.13400       16.68310       -0.06540
H         -4.98230       20.04780        2.19920
C         -6.42620       17.85660        1.48170
C         -7.47550       18.89950        1.16230
H         -6.46100       17.61600        2.55340
H         -6.77460       16.95000        0.97680
C         -8.42990       19.22090        2.13300
C         -9.51760       20.03610        1.82020
C         -9.69610       20.55690        0.52700
C         -8.72430       20.26180       -0.45890
C         -7.62800       19.43030       -0.12590
H         -8.35820       18.80720        3.13650
H        -10.25500       20.24480        2.59370
H         -6.89610       19.17560       -0.89150
C        -10.90200       21.36010        0.26690
C        -11.96800       20.84010       -0.48250
C        -13.11870       21.59860       -0.71910
C        -13.23810       22.89200       -0.19490
C        -12.17910       23.41500        0.55860
C        -11.02880       22.65470        0.79100
H        -11.90290       19.83370       -0.89170
H        -10.21390       23.08720        1.36890
H        -12.23490       24.42370        0.96290
H        -13.91950       21.17100       -1.31920
C        -14.46490       23.71730       -0.46410
Cl       -14.23860       24.70750       -1.92000
H        -14.68160       24.38360        0.37750
H        -15.34290       23.08070       -0.61460
C         -8.79330       20.83920       -1.86500
C         -8.33850       22.27900       -1.94070
H         -9.80610       20.73020       -2.26980
H         -8.16880       20.24400       -2.54510
C         -6.98780       22.59980       -1.77400
C         -6.57640       23.93310       -1.74830
C         -7.49890       24.98500       -1.87770
C         -9.25890       23.31780       -2.12700
C         -8.84500       24.65340       -2.08780
H         -6.24720       21.81550       -1.63650
H         -5.51860       24.14730       -1.60890
H        -10.31650       23.10010       -2.26290
H         -9.59600       25.43470       -2.18530
C         -7.05750       26.38410       -1.75400
C         -6.22010       26.76910       -0.69350
C         -5.74350       28.08210       -0.56500
C         -7.44540       27.36920       -2.67140
C         -6.99280       28.68640       -2.54520
C         -6.12780       29.04860       -1.50340
H         -5.93230       26.03060        0.05380
H         -8.09510       27.11500       -3.50610
H         -7.31280       29.42740       -3.27450
C         -4.85940       28.42970        0.60650
C         -4.07880       29.71050        0.45200
C         -4.45040       30.67280       -0.49210
C         -5.65420       30.47630       -1.38320
H         -6.47890       31.08360       -0.98980
H         -5.40350       30.84200       -2.38720
H         -4.14550       27.60930        0.75560
H         -5.48650       28.50990        1.50310
C         -3.00170       29.96720        1.31310
C         -3.72390       31.86860       -0.56760
C         -2.64070       32.14080        0.29170
C         -2.28360       31.17670        1.25960
H         -2.73430       29.22220        2.06180
H         -4.02010       32.62150       -1.29820
C         -1.96910       33.43990        0.14490
C         -1.03820       33.64830       -0.88290
C         -0.43360       34.89560       -1.06140
C         -2.28740       34.51610        0.98520
C         -1.68500       35.76520        0.80870
C         -0.75990       35.96990       -0.22360
H         -0.78000       32.83070       -1.55400
H          0.29190       35.02160       -1.86250
H         -3.01600       34.38490        1.78290
H         -1.94740       36.57830        1.48250
C         -0.11270       37.31270       -0.41590
Cl         1.38870       37.42100        0.52320
H         -0.78000       38.11940       -0.09480
H          0.12630       37.48490       -1.47060
C         -1.22100       31.41050        2.31040
C         -0.65450       18.73230        0.90070
C         -2.39420       20.78400        2.20200
C         -0.90910       20.98700        2.02770
H         -2.61110       20.76710        3.27740
H         -2.90860       21.64570        1.75630
C         -0.08730       20.03170        1.42980
H         -0.34960       18.63260       -0.14910
H         -0.20730       17.90960        1.47290
C          1.29280       20.30290        1.29610
C         -0.33960       22.19170        2.46760
C          1.02800       22.49890        2.29280
C          1.86530       21.53490        1.69710
H          1.92630       19.55680        0.81620
H         -0.98900       22.94090        2.92270
C          1.44980       23.86020        2.65940
C          2.02740       24.14200        3.90140
C          1.14250       24.93670        1.81300
C          1.35690       26.25980        2.21410
C          1.89090       26.54820        3.47630
C          2.24570       25.46780        4.30330
H          2.66510       25.65240        5.29060
H          2.27160       23.32950        4.58320
H          0.68540       24.74930        0.84260
H          1.06640       27.05430        1.53010
C          2.03330       27.96300        4.01900
C          0.43130       29.60380        2.98140
C          1.04740       31.14530        1.24500
C          0.09040       30.67580        2.14180
H         -1.65560       31.15080        3.28670
H         -0.99430       32.47770        2.41610
C          1.75230       29.09800        3.04630
C          2.75240       29.69300        2.24510
C          2.35260       30.65480        1.29230
H          0.81700       31.96270        0.56760
H          3.09730       31.11070        0.64030
H         -0.32310       29.19690        3.65380
H          3.02720       28.08490        4.46370
H          1.33610       28.05800        4.86360
C          4.19830       29.56210        2.52450
C          4.91790       28.36420        2.50300
C          6.26690       28.33210        2.89940
C          6.93290       29.50040        3.30880
C          6.23950       30.71360        3.27100
C          4.89230       30.72800        2.89390
H          4.43330       27.43880        2.20060
H          6.79210       27.37880        2.89680
H          4.35910       31.67940        2.91180
C          6.37420       18.49330        3.66320
C          5.97500       19.93900        3.38220
H          7.26620       18.26650        3.06660
H          6.67620       18.41270        4.71620
C          6.81620       21.01670        3.79690
C          6.36800       22.32840        3.54490
C          5.19140       22.58530        2.82870
C          4.79530       20.22550        2.64420
C          4.41080       21.53810        2.32980
H          4.18920       19.40830        2.25680
H          6.98210       23.17570        3.84700
H          4.93000       23.61810        2.60470
C          3.30880       21.82660        1.32620
H          3.55300       21.26450        0.41240
H          3.38130       22.87130        0.99500
C          8.19170       20.85060        4.35360
C          8.57710       21.32780        5.62210
C          9.90480       21.19660        6.10520
C         10.89780       20.60230        5.32020
C         10.51640       20.14880        4.04290
C          9.20170       20.27890        3.56870
H          7.83400       21.79730        6.26500
H         10.13360       21.53190        7.11490
H         11.24160       19.64360        3.40590
H          8.97400       19.91900        2.56700
C         12.26750       20.17570        5.82820
C         13.18370       21.00780        6.72090
H         12.88550       19.92080        4.95570
H         12.05610       19.23110        6.34710
C         13.24090       22.42400        6.71010
C         14.22440       23.14490        7.45010
C         15.13420       22.43060        8.23550
C         15.08900       21.03800        8.24610
C         14.16730       20.31510        7.47640
C         14.38470       18.85970        7.44990
H         15.82990       20.49210        8.83230
H         12.53970       22.97940        6.08860
C         15.31850       18.31270        6.55490
C         15.69060       16.96980        6.63920
C         15.13850       16.14330        7.62570
C         14.17110       16.67410        8.49100
C         13.80320       18.02060        8.40810
H         15.79650       18.95030        5.81290
H         16.43430       16.58200        5.94600
H         13.71490       16.04900        9.25580
H         13.08690       18.42410        9.12090
C         15.58090       14.71260        7.75320
Cl        14.64000       13.66620        6.67580
H         15.45780       14.35340        8.78040
H         16.64150       14.61050        7.49820
C         16.19270       23.07930        9.07800
C         16.40120       24.54430        8.85000
H         17.14670       22.57320        8.87390
H         15.94030       22.92350       10.13440
C         15.52770       25.30600        8.06200
C         14.31320       24.66710        7.39030
H         14.32570       24.96010        6.33300
H         13.41160       25.07860        7.85950
C         17.49920       25.14630        9.48070
C         17.74180       26.50450        9.33210
C         16.89820       27.30500        8.55050
C         15.78780       26.68990        7.92640
H         15.11830       27.29800        7.31950
H         18.59170       26.94270        9.85220
H         18.17060       24.55530       10.10030
C         17.19270       28.74650        8.44120
C         18.48170       29.19700        8.12150
C         18.79950       30.55770        8.12800
C         16.22810       29.71510        8.74220
C         16.51890       31.10060        8.72770
C         17.83150       31.52790        8.43220
H         19.82480       30.85230        7.90960
H         19.26730       28.48110        7.88610
H         15.22520       29.39000        9.02050
C         18.26410       32.97240        8.46810
Cl        18.55930       33.49470       10.14090
H         17.52300       33.63340        8.01040
H         19.19600       33.11880        7.91150
C         15.39790       32.06250        9.08050
C         14.13910       31.92010        8.24690
H         15.71070       33.10700        8.99640
H         15.16270       31.90130       10.14120
C         14.18340       31.64390        6.87210
C         13.00710       31.55520        6.12240
C         11.75980       31.77320        6.72040
C         11.72060       32.05920        8.09380
C         12.89320       32.13470        8.84780
H         15.13570       31.49410        6.36720
C         10.52990       31.79200        5.92160
C         10.05190       30.65170        5.25100
C          9.80890       32.98860        5.80820
C          8.86410       30.69290        4.49660
C          8.16080       31.90530        4.40610
C          8.64280       33.04820        5.05510
H         10.60630       29.71770        5.32750
H         10.16610       33.89090        6.30060
H          8.10980       33.99310        4.97580
C          6.90930       32.02270        3.58290
H          6.19750       32.65560        4.12910
H          7.15710       32.52120        2.63760
C          8.37840       29.45550        3.76200
H          9.01480       29.30260        2.88220
H          8.49670       28.59410        4.43200
H         12.82480       32.37430        9.90680
H         10.76590       32.24140        8.58400
H         13.07290       31.34950        5.05610
