43
Coordinates from ORCA-job input
  C           1.55577809564161      1.86699459278373     -0.37355929982273
  C           2.83822937975639      1.48407084050606     -0.20103706251303
  H           0.73766821557343      1.13397568557836     -0.32051723499572
  H           1.26841614560924      2.91210372097656     -0.56902025231933
  C           4.03076895890997      2.34354278957552     -0.23955296653274
  H           3.04331266769212      0.41756204567120     -0.00462928334933
  C           3.97334712957212      3.73756940481263     -0.49098246643441
  C           5.13024465963923      4.51601482845359     -0.51248820051789
  C           6.39608096304946      3.93295448420936     -0.28520545360426
  C           5.30266794888700      1.77021710263413     -0.01626946997090
  C           6.46583630635640      2.55005870741405     -0.04183968593374
  H           5.37552911738356      0.68996829846849      0.18196110553790
  H           7.44350612540373      2.07512918547458      0.14102932553943
  H           5.05777736659586      5.59627493639354     -0.71217401037990
  H           3.00104567301065      4.21955526384886     -0.66807206560561
  C           7.64385028937492      4.77873453078495     -0.31474927431909
  N           7.79287754972815      5.47980604644402     -1.61214312755781
  H           8.52532297221978      4.13537389553372     -0.07321909569168
  H           7.59995609966825      5.57004149331849      0.46277562853786
  C           8.81978703385146      6.42220555746671     -1.73010457338887
  C           7.92371099485107      4.63410669989554     -2.79137522418669
  C           9.44313299828076      4.34255831922223     -2.87670786487275
  H           7.57773362692962      5.18131828540374     -3.69345255220659
  H           7.31767632869639      3.71415345603694     -2.69250079232010
  N          10.08928090509330      5.59969226635970     -2.33248614823842
  H           9.81586094453869      4.13703783598902     -3.89622308063924
  H           9.73332754538991      3.50362212042213     -2.21694395312964
  H           9.12323096452573      6.89747216400875     -0.78020729651720
  H           8.62630891762651      7.18275206887027     -2.51432113043045
  C          11.20595206920131      5.38099999529235     -1.35111194627895
  C          12.43418988016264      4.73056577330107     -1.97402188372606
  H          10.78634778319769      4.76986012029015     -0.52678231375255
  H          11.45924884258580      6.37657249860118     -0.93311475444623
  C          13.56945562899566      4.56006999810831     -0.95377930519860
  H          12.79097494734925      5.35346225711891     -2.82544806764777
  H          12.16980449778256      3.73821797849932     -2.39937389787603
  C          14.81468928759230      3.91398250981848     -1.55970563951144
  H          13.20100786873494      3.94837621155775     -0.10143561381922
  H          13.82782550906738      5.55354603218630     -0.52654210270777
  H          14.59353259777140      2.90432306335772     -1.96193746000927
  H          15.61378542458013      3.80306058649989     -0.80186181648684
  H          15.22458895775696      4.52443745907190     -2.38991472665943
  H          10.47081078137310      6.14932888966617     -3.12098496595302
